15

H          2.74552        0.80190        0.13280
C         -2.44080        0.17100       -0.14100
C         -1.00200        0.32190        0.36720
C         -0.00000       -0.71020       -0.24040
C          1.37250       -0.57020        0.23510
O          1.87540        0.69470       -0.19610
H         -3.06138        0.91064        0.32021
H         -2.80550       -0.80438        0.10501
H         -2.45953        0.30144       -1.20285
H         -0.66057        1.30597        0.12237
H         -1.02692        0.14377        1.42197
H         -0.34126       -1.69359        0.00736
H          0.02236       -0.52955       -1.29480
H          1.97634       -1.35545       -0.16944
H          1.39798       -0.62971        1.30314
